<?xml version="1.0" encoding="UTF-8"?>
<!-- Simple 4-way intersection network - Edges (roads) -->
<edges xmlns:xsi="http://www.w3.org/2001/XMLSchema-instance" xsi:noNamespaceSchemaLocation="http://sumo.dlr.de/xsd/edges_file.xsd">
    <!-- Incoming edges to center -->
    <edge id="N2C" from="north" to="center" numLanes="2" speed="13.89"/>  <!-- 50 km/h -->
    <edge id="S2C" from="south" to="center" numLanes="2" speed="13.89"/>
    <edge id="E2C" from="east" to="center" numLanes="2" speed="13.89"/>
    <edge id="W2C" from="west" to="center" numLanes="2" speed="13.89"/>

    <!-- Outgoing edges from center -->
    <edge id="C2N" from="center" to="north" numLanes="2" speed="13.89"/>
    <edge id="C2S" from="center" to="south" numLanes="2" speed="13.89"/>
    <edge id="C2E" from="center" to="east" numLanes="2" speed="13.89"/>
    <edge id="C2W" from="center" to="west" numLanes="2" speed="13.89"/>
</edges>
