<?xml version="1.0" encoding="UTF-8"?>
<!-- Simple 4-way intersection network - Nodes (junctions) -->
<nodes xmlns:xsi="http://www.w3.org/2001/XMLSchema-instance" xsi:noNamespaceSchemaLocation="http://sumo.dlr.de/xsd/nodes_file.xsd">
    <!-- Central intersection with traffic light -->
    <node id="center" x="0.0" y="0.0" type="traffic_light"/>

    <!-- Endpoints of each road (North, South, East, West) -->
    <node id="north" x="0.0" y="200.0" type="priority"/>
    <node id="south" x="0.0" y="-200.0" type="priority"/>
    <node id="east" x="200.0" y="0.0" type="priority"/>
    <node id="west" x="-200.0" y="0.0" type="priority"/>
</nodes>
